[General]

network = ClientServer
record-eventlog = false
sim-time-limit = 1200s
tkenv-plugin-path = ../../../etc/plugins

**.vector-recording = true
**.scalar-recording = true

**.gateway.transform[*].typename = "GatewayTransformation"

# Global config:
**.ct_marker = 0x03040506
**.ct_mask = -1

# Scheduling parameters for all modules:
# Tick length 8.0E-8s
**.scheduler.tick = 8.0E-8s
# Imports:
include client.ini
include server.ini
include eth_switch.ini


