[General]

network = large_network
record-eventlog = false
sim-time-limit = 1200s
tkenv-plugin-path = ../../../etc/plugins

**.vector-recording = true
**.scalar-recording = true

# Global config:
**.ct_marker = 0x03040506
**.ct_mask = -1

# Arp config
**.arpType = "GlobalARP"

# Processing times
**.qosnp.allowParallelProcessing = false
**.qosnp.processingTime = 100ns
**.publisherEndpoints[*].allowParallelProcessing = false
**.publisherEndpoints[*].processingTime = 20ns
**.subscriberEndpoints[*].allowParallelProcessing = false
**.subscriberEndpoints[*].processingTime = 20ns

# Scheduling parameters for all modules:
# Tick length 8.0E-8s
**.scheduler.tick = 8.0E-8s
# Imports:
include Publisher.ini
include Subscriber.ini
include App1.ini
include App2.ini
include switch1.ini
include switch2.ini


